/*--------------------------------*- C++ -*----------------------------------*\
| =========                 |                                                 |
| \\      /  F ield         | OpenFOAM: The Open Source CFD Toolbox           |
|  \\    /   O peration     | Version:  v1812                                 |
|   \\  /    A nd           | Web:      www.OpenFOAM.com                      |
|    \\/     M anipulation  |                                                 |
\*---------------------------------------------------------------------------*/
FoamFile
{
    version     2.0;
    format      ascii;
    class       polyBoundaryMesh;
    location    "constant/polyMesh";
    object      boundary;
}
// * * * * * * * * * * * * * * * * * * * * * * * * * * * * * * * * * * * * * //

3
(
    wall
    {
        type            patch;
        physicalType    patch;
        nFaces          3905;
        startFace       220278;
    }
    periodic-shadow
    {
        type            patch;
        physicalType    patch;
        nFaces          4015;
        startFace       224183;
    }
    periodic
    {
        type            patch;
        physicalType    patch;
        nFaces          3852;
        startFace       228198;
    }
)

// ************************************************************************* //
