/*--------------------------------*- C++ -*----------------------------------*\
| =========                 |                                                 |
| \\      /  F ield         | OpenFOAM: The Open Source CFD Toolbox           |
|  \\    /   O peration     | Version:  v1812                                 |
|   \\  /    A nd           | Web:      www.OpenFOAM.com                      |
|    \\/     M anipulation  |                                                 |
\*---------------------------------------------------------------------------*/
FoamFile
{
    version     2.0;
    format      ascii;
    class       polyBoundaryMesh;
    location    "constant/polyMesh";
    object      boundary;
}
// * * * * * * * * * * * * * * * * * * * * * * * * * * * * * * * * * * * * * //

4
(
    default-interior
    {
        type            patch;
        physicalType    patch;
        nFaces          222111;
        startFace       0;
    }
    wall
    {
        type            patch;
        physicalType    patch;
        nFaces          3815;
        startFace       222111;
    }
    periodic-shadow
    {
        type            patch;
        physicalType    patch;
        nFaces          3374;
        startFace       225926;
    }
    periodic
    {
        type            patch;
        physicalType    patch;
        nFaces          4162;
        startFace       229300;
    }
)

// ************************************************************************* //
