/*--------------------------------*- C++ -*---------------------------------*\ 
| ========                 |                                                 | 
| \      /  F ield         | OpenFOAM: The Open Source CFD Toolbox           | 
|  \    /   O peration     | Version:  v1812                                 | 
|   \  /    A nd           | Web:      www.OpenFOAM.com                      | 
|    \/     M anipulation  |                                                 | 
\*--------------------------------------------------------------------------*/ 
FoamFile
{
    version     2.0;
    format      ascii;
    class       dictionary;
    location    "system";
    object      fvSolution;
}
// * * * * * * * * * * * * * * * * * * * * * * * * * * * * * * * * * * * * * //

SIMPLE
{
    nNonOrthogonalCorrectors           3;
}

solvers
{
    "(p|p_rgh|G)"
    {
        
        solver           GAMG;
        tolerance        0;
        relTol           1e-6;
        smoother         GaussSeidel;
        nPreSweeps       1;
        nPostSweeps      1;
        cacheAgglomeration on;
        agglomerator     faceAreaPair;
        nCellsInCoarsestLevel 10;
        mergeLevels      1;
		//minIter		     1;
    }
    Phi
    {
        $p;
        relTol                         0;
        tolerance                      1e-6;
    }
    "(U|T|e|h|nuTilda|k|omega|epsilon)"
    {
        solver                         smoothSolver;
        smoother                       GaussSeidel;
        relTol                         1e-6;
        tolerance                      0;
        nSweeps                        1;
		//minIter		    			   1;
    }
}

relaxationFactors
{
    fields
    {
        p                              0.7;
    }
    equations
    {
        "(U|T|e|h|nuTilda|k|epsilon|omega)" 0.2;
    }
}

potentialFlow
{
    nNonOrthogonalCorrectors           10;
}


// * * * * * * * * * * * * * * * * * * * * * * * * * * * * * * * * * * * * * //
